Version 4
SHEET 1 1160 680
WIRE 480 -16 192 -16
WIRE -192 48 -368 48
WIRE 48 48 -112 48
WIRE 192 48 192 -16
WIRE 192 48 128 48
WIRE 368 48 336 48
WIRE 480 48 480 -16
WIRE 480 48 432 48
WIRE 512 48 480 48
WIRE 608 48 576 48
WIRE -368 96 -368 48
WIRE 336 96 336 48
WIRE 336 96 288 96
WIRE 608 112 608 48
WIRE 784 112 608 112
WIRE 896 112 784 112
WIRE 1024 112 896 112
WIRE 48 128 -80 128
WIRE 192 128 128 128
WIRE 336 160 336 96
WIRE 368 160 336 160
WIRE 480 160 432 160
WIRE 512 160 480 160
WIRE 608 160 608 112
WIRE 608 160 576 160
WIRE 784 160 784 112
WIRE 896 160 896 112
WIRE -368 224 -368 176
WIRE -80 224 -80 128
WIRE -80 224 -368 224
WIRE 192 240 192 128
WIRE 480 240 480 160
WIRE 480 240 192 240
WIRE -368 256 -368 224
WIRE 288 288 288 96
WIRE 784 288 784 224
WIRE 784 288 288 288
WIRE 896 288 896 224
WIRE 896 288 784 288
WIRE 1024 288 896 288
WIRE 192 320 192 240
FLAG -368 256 0
FLAG 192 320 0
FLAG 1024 112 12VDC
IOPIN 1024 112 Out
FLAG 1024 288 GND
IOPIN 1024 288 Out
SYMBOL voltage -368 80 R0
WINDOW 123 0 0 Left 0
WINDOW 39 0 0 Left 0
SYMATTR InstName V1
SYMATTR Value SINE(0 230 50)
SYMBOL res -96 32 R90
WINDOW 0 0 56 VBottom 2
WINDOW 3 32 56 VTop 2
SYMATTR InstName R1
SYMATTR Value 0.27R
SYMBOL ind2 32 32 R0
WINDOW 0 6 -6 Left 2
WINDOW 3 -10 113 Left 2
SYMATTR InstName L1
SYMATTR Value 220µH
SYMATTR Type ind
SYMBOL ind2 144 144 R180
WINDOW 0 2 117 Left 2
WINDOW 3 -11 -1 Left 2
SYMATTR InstName L2
SYMATTR Value 12µH
SYMATTR Type ind
SYMBOL diode 368 64 R270
WINDOW 0 32 32 VTop 2
WINDOW 3 0 32 VBottom 2
SYMATTR InstName D1
SYMATTR Value 1N4148
SYMBOL diode 368 176 R270
WINDOW 0 32 32 VTop 2
WINDOW 3 0 32 VBottom 2
SYMATTR InstName D2
SYMATTR Value 1N4148
SYMBOL diode 512 64 R270
WINDOW 0 32 32 VTop 2
WINDOW 3 0 32 VBottom 2
SYMATTR InstName D3
SYMATTR Value 1N4148
SYMBOL diode 512 176 R270
WINDOW 0 32 32 VTop 2
WINDOW 3 0 32 VBottom 2
SYMATTR InstName D4
SYMATTR Value 1N4148
SYMBOL cap 768 160 R0
SYMATTR InstName C1
SYMATTR Value 470µF
SYMBOL cap 880 160 R0
SYMATTR InstName C2
SYMATTR Value 470µF
TEXT 48 192 Left 2 !K L1 L2 1
TEXT 984 328 Left 2 !.tran 1
